Version 4.1
SHEET 1 2028 680
WIRE 512 -768 320 -768
WIRE 1088 -768 592 -768
WIRE 592 -736 592 -768
WIRE 592 -720 592 -736
WIRE 592 -640 592 -672
WIRE -64 -608 -496 -608
WIRE 752 -592 416 -592
WIRE -496 -544 -496 -608
WIRE -64 -544 -64 -608
WIRE -64 -544 -128 -544
WIRE -16 -544 -64 -544
WIRE 240 -544 160 -544
WIRE 320 -544 320 -768
WIRE 320 -544 240 -544
WIRE 528 -544 320 -544
WIRE 576 -544 528 -544
WIRE 672 -544 656 -544
WIRE 752 -544 752 -592
WIRE 752 -544 672 -544
WIRE -192 -480 -192 -544
WIRE -192 -480 -240 -480
WIRE 48 -480 48 -544
WIRE 160 -480 160 -544
WIRE 160 -480 48 -480
WIRE -496 -448 -496 -464
WIRE -416 -448 -496 -448
WIRE 672 -448 672 -544
WIRE -496 -416 -496 -448
WIRE -416 -400 -416 -448
WIRE -240 -400 -240 -480
WIRE -240 -400 -416 -400
WIRE -192 -400 -192 -480
WIRE -64 -400 -128 -400
WIRE -16 -400 -64 -400
WIRE 48 -400 48 -480
WIRE -416 -368 -416 -400
WIRE -416 -368 -496 -368
WIRE -416 -352 -416 -368
WIRE -240 -336 -240 -400
WIRE 240 -336 240 -480
WIRE 240 -336 -240 -336
WIRE 672 -320 672 -384
WIRE -64 -288 -64 -400
WIRE -64 -288 -496 -288
WIRE 528 -288 528 -544
WIRE 832 -288 528 -288
WIRE 224 -272 16 -272
WIRE 416 -272 416 -592
WIRE 416 -272 224 -272
WIRE 432 -272 416 -272
WIRE 672 -240 480 -240
WIRE 832 -240 832 -288
WIRE 864 -240 832 -240
WIRE -240 -224 -240 -336
WIRE 480 -208 480 -240
WIRE 224 -192 224 -272
WIRE 672 -192 672 -240
WIRE 1088 -192 1088 -768
WIRE 1088 -192 672 -192
WIRE 16 -176 16 -272
WIRE 672 -128 672 -192
WIRE 224 -80 224 -112
WIRE 352 -80 224 -80
WIRE 480 -80 480 -128
WIRE 480 -80 416 -80
WIRE 608 -80 480 -80
WIRE 224 -48 224 -80
WIRE 864 -32 864 -240
WIRE -288 0 -496 0
WIRE 16 0 16 -96
WIRE 16 0 -224 0
WIRE 160 0 16 0
WIRE 672 16 672 -32
WIRE 800 16 672 16
WIRE -496 32 -496 0
WIRE 16 96 16 0
WIRE 224 96 224 48
WIRE 864 112 864 64
WIRE 1024 112 864 112
WIRE 864 144 864 112
WIRE -496 176 -496 112
WIRE 1088 192 1088 112
WIRE 224 224 224 176
WIRE 320 224 224 224
WIRE 224 240 224 224
WIRE 320 240 320 224
WIRE 16 352 16 176
WIRE 224 352 224 320
WIRE 224 352 16 352
WIRE 320 352 320 304
WIRE 320 352 224 352
WIRE 864 352 864 224
WIRE 864 352 320 352
WIRE 1088 368 1088 272
WIRE 224 384 224 352
FLAG 224 384 0
FLAG -496 176 0
FLAG 1088 368 0
FLAG -240 -224 0
FLAG -496 -416 0
FLAG -416 -352 0
FLAG 672 -320 0
FLAG 592 -640 0
SYMBOL res 0 -192 R0
SYMATTR InstName R1
SYMATTR Value 320k
SYMBOL res 0 80 R0
SYMATTR InstName R2
SYMATTR Value 55k
SYMBOL res 208 -208 R0
SYMATTR InstName R3
SYMATTR Value 3k
SYMBOL res 208 80 R0
SYMATTR InstName R4
SYMATTR Value 87
SYMBOL res 208 224 R0
SYMATTR InstName R5
SYMATTR Value 663
SYMBOL cap -288 16 R270
WINDOW 0 32 32 VTop 2
WINDOW 3 0 32 VBottom 2
SYMATTR InstName C1
SYMATTR Value 10µf
SYMBOL cap 416 -96 R90
WINDOW 0 0 32 VBottom 2
WINDOW 3 32 32 VTop 2
SYMATTR InstName C2
SYMATTR Value 100µ
SYMBOL cap 304 240 R0
SYMATTR InstName C3
SYMATTR Value 10µ
SYMBOL npn 160 -48 R0
SYMATTR InstName Q1
SYMATTR Value BC547C
SYMBOL voltage -496 16 R0
WINDOW 123 0 0 Left 0
WINDOW 39 0 0 Left 0
SYMATTR InstName V2
SYMATTR Value SINE(0 0.25 1k 0 0)
SYMBOL res 464 -224 R0
SYMATTR InstName R6
SYMATTR Value 1270k
SYMBOL npn 608 -128 R0
SYMATTR InstName Q2
SYMATTR Value BC547C
SYMBOL npn 800 -32 R0
WINDOW 3 56 60 Left 2
SYMATTR Value Qtip41c
SYMATTR InstName Qtip41c
SYMBOL res 848 128 R0
SYMATTR InstName R7
SYMATTR Value 75
SYMBOL cap 1088 96 R90
WINDOW 0 0 32 VBottom 2
WINDOW 3 32 32 VTop 2
SYMATTR InstName C4
SYMATTR Value 100µ
SYMBOL res 1072 176 R0
SYMATTR InstName R8
SYMATTR Value 100
SYMBOL diode -192 -528 R270
WINDOW 0 32 32 VTop 2
WINDOW 3 0 32 VBottom 2
SYMATTR InstName D1
SYMBOL diode -16 -528 R270
WINDOW 0 32 32 VTop 2
WINDOW 3 0 32 VBottom 2
SYMATTR InstName D2
SYMBOL diode -192 -384 R270
WINDOW 0 32 32 VTop 2
WINDOW 3 0 32 VBottom 2
SYMATTR InstName D3
SYMBOL diode -16 -384 R270
WINDOW 0 32 32 VTop 2
WINDOW 3 0 32 VBottom 2
SYMATTR InstName D4
SYMBOL voltage -496 -560 R0
WINDOW 123 24 44 Left 2
WINDOW 39 0 0 Left 0
SYMATTR InstName V1
SYMATTR Value SINE(0 19.4 50)
SYMATTR Value2 AC 3 0
SYMBOL voltage -496 -272 R180
WINDOW 0 24 96 Left 2
WINDOW 3 24 16 Left 2
WINDOW 123 0 0 Left 0
WINDOW 39 0 0 Left 0
SYMATTR InstName V3
SYMATTR Value SINE(0 -19.4 50)
SYMBOL cap 224 -544 R0
SYMATTR InstName C5
SYMATTR Value 4700µf
SYMBOL res 672 -560 R90
WINDOW 0 0 56 VBottom 2
WINDOW 3 32 56 VTop 2
SYMATTR InstName R9
SYMATTR Value 100
SYMBOL cap 656 -448 R0
SYMATTR InstName C6
SYMATTR Value 470µf
SYMBOL res 608 -784 R90
WINDOW 0 0 56 VBottom 2
WINDOW 3 32 56 VTop 2
SYMATTR InstName R10
SYMATTR Value 100
SYMBOL cap 576 -736 R0
SYMATTR InstName C7
SYMATTR Value 470µf
TEXT -528 408 Left 2 !.tran 10000m
TEXT 1304 -160 Left 2 !.MODEL Qtip41c NPN\n+IS=7.55826e-11 BF=40 NF=1.11221 VAF=100\n+IKF=0.526814 ISE=1e-08 NE=2.18072 BR=4\n+NR=1.5 VAR=1000 IKR=3.54059 ISC=1e-08\n+NC=1.63849 RB=4.56157 IRB=0.1 RBM=0.1\n+RE=0.0162111 RC=0.0810556 XTB=0.1 XTI=1\n+EG=1.206 CJE=1.93296e-10 VJE=0.4 MJE=0.259503\n+TF=1e-08 XTF=4.06972 VTF=7.1157 ITF=0.001\n+CJC=1.09657e-10 VJC=0.730921 MJC=0.23 XCJC=0.803085\n+FC=0.8 CJS=0 VJS=0.75 MJS=0.5\n+TR=9.01013e-08 PTF=0 KF=0 AF=1
